<?xml version="1.0" encoding="UTF-8"?>

<!-- generated on 2026-03-25 22:57:04.672225 by Eclipse SUMO randomTrips.py v1_26_0+0000-fa7df22d7f1
<configuration>
    <net-file value="final.net.xml"/>
    <output-trip-file value="veh_routes.rou.xml"/>
    <prefix value="v"/>
    <trip-attributes value="departLane=&quot;best&quot; departSpeed=&quot;max&quot; departPos=&quot;random&quot;"/>
</configuration>
-->

<routes xmlns:xsi="http://www.w3.org/2001/XMLSchema-instance" xsi:noNamespaceSchemaLocation="http://sumo.dlr.de/xsd/routes_file.xsd">
    <trip id="v0" depart="0.00" from="27000966#13" to="-178936285#2" departLane="best" departSpeed="max" departPos="random"/>
    <trip id="v1" depart="1.00" from="-741929960#0" to="-677789617#1" departLane="best" departSpeed="max" departPos="random"/>
    <trip id="v2" depart="2.00" from="42059095#6" to="27000989#20" departLane="best" departSpeed="max" departPos="random"/>
    <trip id="v3" depart="3.00" from="692770123#1" to="-235063745#0" departLane="best" departSpeed="max" departPos="random"/>
    <trip id="v4" depart="4.00" from="178936289#13" to="-178936285#6" departLane="best" departSpeed="max" departPos="random"/>
    <trip id="v5" depart="5.00" from="-677789596#0" to="235063661#0" departLane="best" departSpeed="max" departPos="random"/>
    <trip id="v6" depart="6.00" from="-178936285#4" to="-557409302#1" departLane="best" departSpeed="max" departPos="random"/>
    <trip id="v7" depart="7.00" from="27000966#8" to="235063948#0" departLane="best" departSpeed="max" departPos="random"/>
    <trip id="v8" depart="8.00" from="-677789596#1" to="235064063#1" departLane="best" departSpeed="max" departPos="random"/>
    <trip id="v9" depart="9.00" from="533894730#8" to="-178498365#1" departLane="best" departSpeed="max" departPos="random"/>
    <trip id="v10" depart="10.00" from="533894730#5" to="38704232#6" departLane="best" departSpeed="max" departPos="random"/>
    <trip id="v11" depart="11.00" from="1228562624" to="-235064111#3" departLane="best" departSpeed="max" departPos="random"/>
    <trip id="v12" depart="12.00" from="746915319#3" to="1228562623#4" departLane="best" departSpeed="max" departPos="random"/>
    <trip id="v13" depart="13.00" from="-235063832#2" to="-235063948#0" departLane="best" departSpeed="max" departPos="random"/>
    <trip id="v14" depart="14.00" from="561429557#7" to="235064085#2" departLane="best" departSpeed="max" departPos="random"/>
    <trip id="v15" depart="15.00" from="533894730#6" to="42059095#0" departLane="best" departSpeed="max" departPos="random"/>
    <trip id="v16" depart="16.00" from="235063757#3" to="747038112" departLane="best" departSpeed="max" departPos="random"/>
    <trip id="v17" depart="17.00" from="178498377#2" to="235063955#0" departLane="best" departSpeed="max" departPos="random"/>
    <trip id="v18" depart="18.00" from="557050020" to="235064111#7" departLane="best" departSpeed="max" departPos="random"/>
    <trip id="v19" depart="19.00" from="677788793#1" to="235064050#0" departLane="best" departSpeed="max" departPos="random"/>
    <trip id="v20" depart="20.00" from="38704234#0" to="-178937089#4" departLane="best" departSpeed="max" departPos="random"/>
    <trip id="v21" depart="21.00" from="-684294575#0" to="-747038107" departLane="best" departSpeed="max" departPos="random"/>
    <trip id="v22" depart="22.00" from="-235063739#1" to="-684294575#4" departLane="best" departSpeed="max" departPos="random"/>
    <trip id="v23" depart="23.00" from="-235063953#0" to="-741929959#1" departLane="best" departSpeed="max" departPos="random"/>
    <trip id="v24" depart="24.00" from="27000966#10" to="178498365#10" departLane="best" departSpeed="max" departPos="random"/>
    <trip id="v25" depart="25.00" from="178498365#6" to="-561429557#6" departLane="best" departSpeed="max" departPos="random"/>
    <trip id="v26" depart="26.00" from="-741929958#1" to="746915316#2" departLane="best" departSpeed="max" departPos="random"/>
    <trip id="v27" depart="27.00" from="27000966#7" to="235064097#2" departLane="best" departSpeed="max" departPos="random"/>
    <trip id="v28" depart="28.00" from="-27000966#3" to="42059095#0" departLane="best" departSpeed="max" departPos="random"/>
    <trip id="v29" depart="29.00" from="-27000966#11" to="178498377#3" departLane="best" departSpeed="max" departPos="random"/>
    <trip id="v30" depart="30.00" from="747354500#0" to="27000966#15" departLane="best" departSpeed="max" departPos="random"/>
    <trip id="v31" depart="31.00" from="235063955#1" to="27000989#7" departLane="best" departSpeed="max" departPos="random"/>
    <trip id="v32" depart="32.00" from="561429557#4" to="434698489#9" departLane="best" departSpeed="max" departPos="random"/>
    <trip id="v33" depart="33.00" from="-684294575#1" to="-178936285#7" departLane="best" departSpeed="max" departPos="random"/>
    <trip id="v34" depart="34.00" from="-879228344#0" to="-741845185#1" departLane="best" departSpeed="max" departPos="random"/>
    <trip id="v35" depart="35.00" from="-561429557#6" to="746915317#4" departLane="best" departSpeed="max" departPos="random"/>
    <trip id="v36" depart="36.00" from="677790077#1" to="-769262643" departLane="best" departSpeed="max" departPos="random"/>
    <trip id="v37" depart="37.00" from="27000968#2" to="178936285#3" departLane="best" departSpeed="max" departPos="random"/>
    <trip id="v38" depart="38.00" from="741845184#1" to="178936307#1" departLane="best" departSpeed="max" departPos="random"/>
    <trip id="v39" depart="39.00" from="-741845185#4" to="-692782522#3" departLane="best" departSpeed="max" departPos="random"/>
    <trip id="v40" depart="40.00" from="235063989#1" to="-741845184#2" departLane="best" departSpeed="max" departPos="random"/>
    <trip id="v41" depart="41.00" from="235064057#1" to="692782522#1" departLane="best" departSpeed="max" departPos="random"/>
    <trip id="v42" depart="42.00" from="178936285#6" to="-677789596#2" departLane="best" departSpeed="max" departPos="random"/>
    <trip id="v43" depart="43.00" from="879228344#0" to="235063692" departLane="best" departSpeed="max" departPos="random"/>
    <trip id="v44" depart="44.00" from="-235063832#0" to="-178937089#5" departLane="best" departSpeed="max" departPos="random"/>
    <trip id="v45" depart="45.00" from="-235063989#2" to="27000957#1" departLane="best" departSpeed="max" departPos="random"/>
    <trip id="v46" depart="46.00" from="533894730#1" to="178936289#13" departLane="best" departSpeed="max" departPos="random"/>
    <trip id="v47" depart="47.00" from="-235063661#0" to="178498377#4" departLane="best" departSpeed="max" departPos="random"/>
    <trip id="v48" depart="48.00" from="769262643" to="235063757#2" departLane="best" departSpeed="max" departPos="random"/>
    <trip id="v49" depart="49.00" from="747038110" to="614225993#6" departLane="best" departSpeed="max" departPos="random"/>
    <trip id="v50" depart="50.00" from="-178498365#6" to="38704236#3" departLane="best" departSpeed="max" departPos="random"/>
    <trip id="v51" depart="51.00" from="27000989#5" to="235063780" departLane="best" departSpeed="max" departPos="random"/>
    <trip id="v52" depart="52.00" from="-741929958#0" to="27000966#2" departLane="best" departSpeed="max" departPos="random"/>
    <trip id="v53" depart="53.00" from="-235063990#0" to="178936289#7" departLane="best" departSpeed="max" departPos="random"/>
    <trip id="v54" depart="54.00" from="178936301#3" to="746915319#3" departLane="best" departSpeed="max" departPos="random"/>
    <trip id="v55" depart="55.00" from="677790077#1" to="-741845184#2" departLane="best" departSpeed="max" departPos="random"/>
    <trip id="v56" depart="56.00" from="235063567#1" to="-38704235#0" departLane="best" departSpeed="max" departPos="random"/>
    <trip id="v57" depart="57.00" from="741664920" to="677789596#0" departLane="best" departSpeed="max" departPos="random"/>
    <trip id="v58" depart="58.00" from="-747239094" to="27000966#13" departLane="best" departSpeed="max" departPos="random"/>
    <trip id="v59" depart="59.00" from="235064097#1" to="-235064111#1" departLane="best" departSpeed="max" departPos="random"/>
    <trip id="v60" depart="60.00" from="434698489#0" to="235063832#0" departLane="best" departSpeed="max" departPos="random"/>
    <trip id="v61" depart="61.00" from="530283032#0" to="235063757#3" departLane="best" departSpeed="max" departPos="random"/>
    <trip id="v62" depart="62.00" from="-178261604#2" to="1162981416#1" departLane="best" departSpeed="max" departPos="random"/>
    <trip id="v63" depart="63.00" from="-178499086#1" to="741929960#0" departLane="best" departSpeed="max" departPos="random"/>
    <trip id="v64" depart="64.00" from="684294575#1" to="557050021" departLane="best" departSpeed="max" departPos="random"/>
    <trip id="v65" depart="65.00" from="-747354500#0" to="-235063567#0" departLane="best" departSpeed="max" departPos="random"/>
    <trip id="v66" depart="66.00" from="684294575#1" to="746915318#3" departLane="best" departSpeed="max" departPos="random"/>
    <trip id="v67" depart="67.00" from="-235063748" to="235063485" departLane="best" departSpeed="max" departPos="random"/>
    <trip id="v68" depart="68.00" from="-235063703#0" to="42343815#1" departLane="best" departSpeed="max" departPos="random"/>
    <trip id="v69" depart="69.00" from="434698489#11" to="-235064057#0" departLane="best" departSpeed="max" departPos="random"/>
    <trip id="v70" depart="70.00" from="178937091#1" to="235063953#0" departLane="best" departSpeed="max" departPos="random"/>
    <trip id="v71" depart="71.00" from="-741845185#4" to="677789596#2" departLane="best" departSpeed="max" departPos="random"/>
    <trip id="v72" depart="72.00" from="178936289#15" to="-561429557#7" departLane="best" departSpeed="max" departPos="random"/>
    <trip id="v73" depart="73.00" from="235063757#5" to="42059095#0" departLane="best" departSpeed="max" departPos="random"/>
    <trip id="v74" depart="74.00" from="-557409303#0" to="-747354500#1" departLane="best" departSpeed="max" departPos="random"/>
    <trip id="v75" depart="75.00" from="749330687" to="27000966#9" departLane="best" departSpeed="max" departPos="random"/>
    <trip id="v76" depart="76.00" from="178936289#9" to="235063731" departLane="best" departSpeed="max" departPos="random"/>
    <trip id="v77" depart="77.00" from="-235064009#1" to="-677790077#0" departLane="best" departSpeed="max" departPos="random"/>
    <trip id="v78" depart="78.00" from="1228562623#6" to="235064063#0" departLane="best" departSpeed="max" departPos="random"/>
    <trip id="v79" depart="79.00" from="-684294575#1" to="-677789596#2" departLane="best" departSpeed="max" departPos="random"/>
    <trip id="v80" depart="80.00" from="-235063703#1" to="27000966#0" departLane="best" departSpeed="max" departPos="random"/>
    <trip id="v81" depart="81.00" from="-684294575#1" to="692823863" departLane="best" departSpeed="max" departPos="random"/>
    <trip id="v82" depart="82.00" from="677788793#0" to="-235063675" departLane="best" departSpeed="max" departPos="random"/>
    <trip id="v83" depart="83.00" from="-692015071#1" to="27000989#16" departLane="best" departSpeed="max" departPos="random"/>
    <trip id="v84" depart="84.00" from="-561429557#8" to="-235064057#3" departLane="best" departSpeed="max" departPos="random"/>
    <trip id="v85" depart="85.00" from="746915316#0" to="235064009#1" departLane="best" departSpeed="max" departPos="random"/>
    <trip id="v86" depart="86.00" from="178937089#5" to="530283032#5" departLane="best" departSpeed="max" departPos="random"/>
    <trip id="v87" depart="87.00" from="533894730#6" to="-38704238#0" departLane="best" departSpeed="max" departPos="random"/>
    <trip id="v88" depart="88.00" from="-235063948#2" to="178936289#4" departLane="best" departSpeed="max" departPos="random"/>
    <trip id="v89" depart="89.00" from="178936289#15" to="178937089#2" departLane="best" departSpeed="max" departPos="random"/>
    <trip id="v90" depart="90.00" from="42059095#0" to="27000989#19" departLane="best" departSpeed="max" departPos="random"/>
    <trip id="v91" depart="91.00" from="747354483" to="-235063948#2" departLane="best" departSpeed="max" departPos="random"/>
    <trip id="v92" depart="92.00" from="178936285#8" to="1228562623#6" departLane="best" departSpeed="max" departPos="random"/>
    <trip id="v93" depart="93.00" from="677788793#1" to="-692808573" departLane="best" departSpeed="max" departPos="random"/>
    <trip id="v94" depart="94.00" from="-38704238#0" to="178936299#0" departLane="best" departSpeed="max" departPos="random"/>
    <trip id="v95" depart="95.00" from="178936289#13" to="-741929959#2" departLane="best" departSpeed="max" departPos="random"/>
    <trip id="v96" depart="96.00" from="-692805339" to="741929958#2" departLane="best" departSpeed="max" departPos="random"/>
    <trip id="v97" depart="97.00" from="178936294#3" to="614225993#7" departLane="best" departSpeed="max" departPos="random"/>
    <trip id="v98" depart="98.00" from="235063948#2" to="-235063485" departLane="best" departSpeed="max" departPos="random"/>
    <trip id="v99" depart="99.00" from="879228345" to="557409302#0" departLane="best" departSpeed="max" departPos="random"/>
    <trip id="v100" depart="100.00" from="747038107" to="741929959#1" departLane="best" departSpeed="max" departPos="random"/>
    <trip id="v101" depart="101.00" from="561429557#8" to="-27000966#13" departLane="best" departSpeed="max" departPos="random"/>
    <trip id="v102" depart="102.00" from="235063447#0" to="-677789438#0" departLane="best" departSpeed="max" departPos="random"/>
    <trip id="v103" depart="103.00" from="178936285#7" to="-235063567#0" departLane="best" departSpeed="max" departPos="random"/>
    <trip id="v104" depart="104.00" from="178498377#2" to="747354498" departLane="best" departSpeed="max" departPos="random"/>
    <trip id="v105" depart="105.00" from="-741845185#4" to="530283032#5" departLane="best" departSpeed="max" departPos="random"/>
    <trip id="v106" depart="106.00" from="178936301#3" to="178936289#15" departLane="best" departSpeed="max" departPos="random"/>
    <trip id="v107" depart="107.00" from="746915319#3" to="749330687" departLane="best" departSpeed="max" departPos="random"/>
    <trip id="v108" depart="108.00" from="235063955#0" to="38704236#0" departLane="best" departSpeed="max" departPos="random"/>
    <trip id="v109" depart="109.00" from="-235064111#3" to="-747038112" departLane="best" departSpeed="max" departPos="random"/>
    <trip id="v110" depart="110.00" from="747038107" to="235064050#1" departLane="best" departSpeed="max" departPos="random"/>
    <trip id="v111" depart="111.00" from="235063832#0" to="42059097#13" departLane="best" departSpeed="max" departPos="random"/>
    <trip id="v112" depart="112.00" from="-235063567#0" to="235064057#1" departLane="best" departSpeed="max" departPos="random"/>
    <trip id="v113" depart="113.00" from="235063588#1" to="614225993#1" departLane="best" departSpeed="max" departPos="random"/>
    <trip id="v114" depart="114.00" from="-235064111#7" to="747038104" departLane="best" departSpeed="max" departPos="random"/>
    <trip id="v115" depart="115.00" from="-235063745#0" to="-38704236#4" departLane="best" departSpeed="max" departPos="random"/>
    <trip id="v116" depart="116.00" from="-684294575#5" to="-235064002#2" departLane="best" departSpeed="max" departPos="random"/>
    <trip id="v117" depart="117.00" from="692770122#1" to="-692782522#3" departLane="best" departSpeed="max" departPos="random"/>
    <trip id="v118" depart="118.00" from="235064063#4" to="235064111#7" departLane="best" departSpeed="max" departPos="random"/>
    <trip id="v119" depart="119.00" from="178936289#11" to="235064057#1" departLane="best" departSpeed="max" departPos="random"/>
    <trip id="v120" depart="120.00" from="235063731" to="746915316#1" departLane="best" departSpeed="max" departPos="random"/>
    <trip id="v121" depart="121.00" from="-561429557#0" to="38704235#0" departLane="best" departSpeed="max" departPos="random"/>
    <trip id="v122" depart="122.00" from="-692015071#1" to="178936285#3" departLane="best" departSpeed="max" departPos="random"/>
    <trip id="v123" depart="123.00" from="27000989#17" to="-747239090" departLane="best" departSpeed="max" departPos="random"/>
    <trip id="v124" depart="124.00" from="-879228345" to="42059097#4" departLane="best" departSpeed="max" departPos="random"/>
    <trip id="v125" depart="125.00" from="-235063726#0" to="178936307#1" departLane="best" departSpeed="max" departPos="random"/>
    <trip id="v126" depart="126.00" from="879228344#0" to="754829165" departLane="best" departSpeed="max" departPos="random"/>
    <trip id="v127" depart="127.00" from="-235063726#1" to="-561429557#8" departLane="best" departSpeed="max" departPos="random"/>
    <trip id="v128" depart="128.00" from="-741845185#4" to="746915316#0" departLane="best" departSpeed="max" departPos="random"/>
    <trip id="v129" depart="129.00" from="684294575#3" to="684294575#0" departLane="best" departSpeed="max" departPos="random"/>
    <trip id="v130" depart="130.00" from="178498365#6" to="-235064111#7" departLane="best" departSpeed="max" departPos="random"/>
    <trip id="v131" depart="131.00" from="557409302#0" to="38704232#9" departLane="best" departSpeed="max" departPos="random"/>
    <trip id="v132" depart="132.00" from="235064097#3" to="747354499" departLane="best" departSpeed="max" departPos="random"/>
    <trip id="v133" depart="133.00" from="27000968#1" to="-178498365#2" departLane="best" departSpeed="max" departPos="random"/>
    <trip id="v134" depart="134.00" from="533894732#11" to="-747239090" departLane="best" departSpeed="max" departPos="random"/>
    <trip id="v135" depart="135.00" from="27000989#0" to="746915316#4" departLane="best" departSpeed="max" departPos="random"/>
    <trip id="v136" depart="136.00" from="-235064065#0" to="-235063990#2" departLane="best" departSpeed="max" departPos="random"/>
    <trip id="v137" depart="137.00" from="-235063989#0" to="235063955#0" departLane="best" departSpeed="max" departPos="random"/>
    <trip id="v138" depart="138.00" from="-741929959#1" to="235064085#3" departLane="best" departSpeed="max" departPos="random"/>
    <trip id="v139" depart="139.00" from="38704235#1" to="-561429557#0" departLane="best" departSpeed="max" departPos="random"/>
    <trip id="v140" depart="140.00" from="27000966#1" to="-741845184#2" departLane="best" departSpeed="max" departPos="random"/>
    <trip id="v141" depart="141.00" from="235063485" to="692823863" departLane="best" departSpeed="max" departPos="random"/>
    <trip id="v142" depart="142.00" from="561429557#6" to="-235063832#0" departLane="best" departSpeed="max" departPos="random"/>
    <trip id="v143" depart="143.00" from="178936289#15" to="-741929959#0" departLane="best" departSpeed="max" departPos="random"/>
    <trip id="v144" depart="144.00" from="-178498365#0" to="434698489#6" departLane="best" departSpeed="max" departPos="random"/>
    <trip id="v145" depart="145.00" from="27000966#11" to="-741845184#1" departLane="best" departSpeed="max" departPos="random"/>
    <trip id="v146" depart="146.00" from="42059095#9" to="235063953#2" departLane="best" departSpeed="max" departPos="random"/>
    <trip id="v147" depart="147.00" from="178936289#2" to="-178498365#3" departLane="best" departSpeed="max" departPos="random"/>
    <trip id="v148" depart="148.00" from="-235063728" to="684294575#2" departLane="best" departSpeed="max" departPos="random"/>
    <trip id="v149" depart="149.00" from="727745324#0" to="235063948#1" departLane="best" departSpeed="max" departPos="random"/>
    <trip id="v150" depart="150.00" from="557409302#1" to="235064057#0" departLane="best" departSpeed="max" departPos="random"/>
    <trip id="v151" depart="151.00" from="-235064097#2" to="-235064047#4" departLane="best" departSpeed="max" departPos="random"/>
    <trip id="v152" depart="152.00" from="-747354500#1" to="692782522#3" departLane="best" departSpeed="max" departPos="random"/>
    <trip id="v153" depart="153.00" from="533894730#12" to="614225993#6" departLane="best" departSpeed="max" departPos="random"/>
    <trip id="v154" depart="154.00" from="692808573" to="-561429557#6" departLane="best" departSpeed="max" departPos="random"/>
    <trip id="v155" depart="155.00" from="-692805339" to="-235063953#2" departLane="best" departSpeed="max" departPos="random"/>
    <trip id="v156" depart="156.00" from="530283032#1" to="684294575#3" departLane="best" departSpeed="max" departPos="random"/>
    <trip id="v157" depart="157.00" from="178936286#1" to="265095722#0" departLane="best" departSpeed="max" departPos="random"/>
    <trip id="v158" depart="158.00" from="-235064111#3" to="741929960#1" departLane="best" departSpeed="max" departPos="random"/>
    <trip id="v159" depart="159.00" from="677789438#0" to="747239090" departLane="best" departSpeed="max" departPos="random"/>
    <trip id="v160" depart="160.00" from="533894730#9" to="684294575#1" departLane="best" departSpeed="max" departPos="random"/>
    <trip id="v161" depart="161.00" from="-178936285#3" to="42059095#6" departLane="best" departSpeed="max" departPos="random"/>
    <trip id="v162" depart="162.00" from="1228562623#2" to="741929960#1" departLane="best" departSpeed="max" departPos="random"/>
    <trip id="v163" depart="163.00" from="533894730#3" to="677788793#1" departLane="best" departSpeed="max" departPos="random"/>
    <trip id="v164" depart="164.00" from="533894730#9" to="-741845185#0" departLane="best" departSpeed="max" departPos="random"/>
    <trip id="v165" depart="165.00" from="530283032#6" to="-235063955#2" departLane="best" departSpeed="max" departPos="random"/>
    <trip id="v166" depart="166.00" from="677789617#0" to="614225993#5" departLane="best" departSpeed="max" departPos="random"/>
    <trip id="v167" depart="167.00" from="-677789617#0" to="533894732#11" departLane="best" departSpeed="max" departPos="random"/>
    <trip id="v168" depart="168.00" from="178936307#1" to="-747354488" departLane="best" departSpeed="max" departPos="random"/>
    <trip id="v169" depart="169.00" from="533894730#12" to="-684294575#1" departLane="best" departSpeed="max" departPos="random"/>
    <trip id="v170" depart="170.00" from="-178936285#2" to="-557050020" departLane="best" departSpeed="max" departPos="random"/>
    <trip id="v171" depart="171.00" from="1181247152" to="677788793#1" departLane="best" departSpeed="max" departPos="random"/>
    <trip id="v172" depart="172.00" from="747038106" to="-741929959#2" departLane="best" departSpeed="max" departPos="random"/>
    <trip id="v173" depart="173.00" from="27000966#15" to="178936285#6" departLane="best" departSpeed="max" departPos="random"/>
    <trip id="v174" depart="174.00" from="747239093" to="235063779" departLane="best" departSpeed="max" departPos="random"/>
    <trip id="v175" depart="175.00" from="746915316#2" to="-235063990#2" departLane="best" departSpeed="max" departPos="random"/>
    <trip id="v176" depart="176.00" from="747038108" to="-38704235#0" departLane="best" departSpeed="max" departPos="random"/>
    <trip id="v177" depart="177.00" from="747038103" to="-741845185#0" departLane="best" departSpeed="max" departPos="random"/>
    <trip id="v178" depart="178.00" from="-235063989#1" to="178936289#7" departLane="best" departSpeed="max" departPos="random"/>
    <trip id="v179" depart="179.00" from="38704238#1" to="-747856333" departLane="best" departSpeed="max" departPos="random"/>
    <trip id="v180" depart="180.00" from="235064085#3" to="235063703#1" departLane="best" departSpeed="max" departPos="random"/>
    <trip id="v181" depart="181.00" from="178498377#7" to="235064047#4" departLane="best" departSpeed="max" departPos="random"/>
    <trip id="v182" depart="182.00" from="-741845184#1" to="38704234#3" departLane="best" departSpeed="max" departPos="random"/>
    <trip id="v183" depart="183.00" from="-178261604#4" to="741929959#1" departLane="best" departSpeed="max" departPos="random"/>
    <trip id="v184" depart="184.00" from="235063757#5" to="38704236#2" departLane="best" departSpeed="max" departPos="random"/>
    <trip id="v185" depart="185.00" from="42059097#0" to="27000989#17" departLane="best" departSpeed="max" departPos="random"/>
    <trip id="v186" depart="186.00" from="178498365#1" to="-235063661#1" departLane="best" departSpeed="max" departPos="random"/>
    <trip id="v187" depart="187.00" from="27000989#0" to="1228562623#0" departLane="best" departSpeed="max" departPos="random"/>
    <trip id="v188" depart="188.00" from="-754829165" to="561429557#5" departLane="best" departSpeed="max" departPos="random"/>
    <trip id="v189" depart="189.00" from="38704236#2" to="-747239090" departLane="best" departSpeed="max" departPos="random"/>
    <trip id="v190" depart="190.00" from="-747354500#2" to="178936286#2" departLane="best" departSpeed="max" departPos="random"/>
    <trip id="v191" depart="191.00" from="178936285#8" to="-747038111#1" departLane="best" departSpeed="max" departPos="random"/>
    <trip id="v192" depart="192.00" from="-235064047#4" to="178936289#12" departLane="best" departSpeed="max" departPos="random"/>
    <trip id="v193" depart="193.00" from="746915316#3" to="27000989#21" departLane="best" departSpeed="max" departPos="random"/>
    <trip id="v194" depart="194.00" from="692823863" to="235064111#3" departLane="best" departSpeed="max" departPos="random"/>
    <trip id="v195" depart="195.00" from="-747354488" to="235063948#3" departLane="best" departSpeed="max" departPos="random"/>
    <trip id="v196" depart="196.00" from="-178261604#2" to="-747038105" departLane="best" departSpeed="max" departPos="random"/>
    <trip id="v197" depart="197.00" from="178936289#4" to="235064050#1" departLane="best" departSpeed="max" departPos="random"/>
    <trip id="v198" depart="198.00" from="27000968#2" to="178937089#1" departLane="best" departSpeed="max" departPos="random"/>
    <trip id="v199" depart="199.00" from="178936294#2" to="-677789438#0" departLane="best" departSpeed="max" departPos="random"/>
    <trip id="v200" depart="200.00" from="178937089#5" to="692805339" departLane="best" departSpeed="max" departPos="random"/>
    <trip id="v201" depart="201.00" from="533894730#12" to="-27000966#2" departLane="best" departSpeed="max" departPos="random"/>
    <trip id="v202" depart="202.00" from="-235063748" to="235063728" departLane="best" departSpeed="max" departPos="random"/>
    <trip id="v203" depart="203.00" from="27000966#0" to="1228562623#3" departLane="best" departSpeed="max" departPos="random"/>
    <trip id="v204" depart="204.00" from="533894732#2" to="42059097#2" departLane="best" departSpeed="max" departPos="random"/>
    <trip id="v205" depart="205.00" from="27000989#18" to="-677790077#0" departLane="best" departSpeed="max" departPos="random"/>
    <trip id="v206" depart="206.00" from="-557409302#0" to="-178936285#2" departLane="best" departSpeed="max" departPos="random"/>
    <trip id="v207" depart="207.00" from="-692782520" to="178937091#1" departLane="best" departSpeed="max" departPos="random"/>
    <trip id="v208" depart="208.00" from="614225993#0" to="-235063692" departLane="best" departSpeed="max" departPos="random"/>
    <trip id="v209" depart="209.00" from="178936289#0" to="27000957#3" departLane="best" departSpeed="max" departPos="random"/>
    <trip id="v210" depart="210.00" from="-557050021" to="38704232#4" departLane="best" departSpeed="max" departPos="random"/>
    <trip id="v211" depart="211.00" from="235063493#2" to="-692782520" departLane="best" departSpeed="max" departPos="random"/>
    <trip id="v212" depart="212.00" from="27000968#3" to="-178498365#0" departLane="best" departSpeed="max" departPos="random"/>
    <trip id="v213" depart="213.00" from="42059097#2" to="434698489#4" departLane="best" departSpeed="max" departPos="random"/>
    <trip id="v214" depart="214.00" from="-235063955#2" to="178936289#16" departLane="best" departSpeed="max" departPos="random"/>
    <trip id="v215" depart="215.00" from="-27000966#8" to="747038102" departLane="best" departSpeed="max" departPos="random"/>
    <trip id="v216" depart="216.00" from="235063717" to="-235063447#1" departLane="best" departSpeed="max" departPos="random"/>
    <trip id="v217" depart="217.00" from="-692805339" to="561429557#6" departLane="best" departSpeed="max" departPos="random"/>
    <trip id="v218" depart="218.00" from="27000989#13" to="747354500#0" departLane="best" departSpeed="max" departPos="random"/>
    <trip id="v219" depart="219.00" from="235064063#4" to="746915319#0" departLane="best" departSpeed="max" departPos="random"/>
    <trip id="v220" depart="220.00" from="692770123#0" to="235064111#1" departLane="best" departSpeed="max" departPos="random"/>
    <trip id="v221" depart="221.00" from="38704236#2" to="235063661#0" departLane="best" departSpeed="max" departPos="random"/>
    <trip id="v222" depart="222.00" from="557409300#0" to="235063948#3" departLane="best" departSpeed="max" departPos="random"/>
    <trip id="v223" depart="223.00" from="692782522#3" to="42059097#10" departLane="best" departSpeed="max" departPos="random"/>
    <trip id="v224" depart="224.00" from="178937091#0" to="-741664920" departLane="best" departSpeed="max" departPos="random"/>
    <trip id="v225" depart="225.00" from="-692782522#3" to="27000966#13" departLane="best" departSpeed="max" departPos="random"/>
    <trip id="v226" depart="226.00" from="434698489#11" to="235063745#0" departLane="best" departSpeed="max" departPos="random"/>
    <trip id="v227" depart="227.00" from="27000957#0" to="-741929958#2" departLane="best" departSpeed="max" departPos="random"/>
    <trip id="v228" depart="228.00" from="-235063739#0" to="-747038104" departLane="best" departSpeed="max" departPos="random"/>
    <trip id="v229" depart="229.00" from="235063757#7" to="-235064065#3" departLane="best" departSpeed="max" departPos="random"/>