<?xml version="1.0" encoding="UTF-8"?>

<!-- generated on 2026-03-25T23:12:49.886311+02:00 by Eclipse SUMO netconvert 1.26.0
<netconvertConfiguration xmlns:xsi="http://www.w3.org/2001/XMLSchema-instance" xsi:noNamespaceSchemaLocation="http://sumo.dlr.de/xsd/netconvertConfiguration.xsd">

    <input>
        <sumo-net-file value="final.net.xml"/>
    </input>

    <output>
        <output-file value="final_with_crossings.net.xml"/>
    </output>

    <processing>
        <geometry.min-radius.fix.railways value="false"/>
        <geometry.avoid-overlap value="false"/>
        <geometry.max-grade.fix value="false"/>
        <offset.disable-normalization value="true"/>
        <lefthand value="0"/>
    </processing>

    <junctions>
        <no-turnarounds value="true"/>
        <junctions.corner-detail value="5"/>
        <junctions.limit-turn-speed value="5.50"/>
        <rectangular-lane-cut value="0"/>
    </junctions>

    <pedestrian>
        <crossings.guess value="true"/>
        <walkingareas value="1"/>
    </pedestrian>

</netconvertConfiguration>
-->

<net version="1.20" junctionCornerDetail="5" walkingareas="true" limitTurnSpeed="5.50" avoidOverlap="0" xmlns:xsi="http://www.w3.org/2001/XMLSchema-instance" xsi:noNamespaceSchemaLocation="http://sumo.dlr.de/xsd/net_file.xsd">

    <location netOffset="-775838.66,-3455406.10" convBoundary="0.00,0.00,4421.08,3135.83" origBoundary="29.894883,31.200244,29.941999,31.227468" projParameter="+proj=utm +zone=35 +ellps=WGS84 +datum=WGS84 +units=m +no_defs"/>

    <type id="highway.footway" priority="1" numLanes="1" speed="2.78" allow="pedestrian" oneway="1" width="2.00"/>
    <type id="highway.path" priority="1" numLanes="1" speed="5.56" allow="pedestrian bicycle" oneway="0" width="2.00"/>
    <type id="highway.primary" priority="12" numLanes="2" speed="27.78" disallow="tram rail_urban rail rail_electric rail_fast ship container cable_car subway aircraft wheelchair scooter drone" oneway="0"/>
    <type id="highway.primary_link" priority="7" numLanes="1" speed="22.22" disallow="tram rail_urban rail rail_electric rail_fast ship container cable_car subway aircraft wheelchair scooter drone" oneway="0"/>
    <type id="highway.residential" priority="3" numLanes="1" speed="13.89" disallow="tram rail_urban rail rail_electric rail_fast ship container cable_car subway aircraft wheelchair scooter drone" oneway="0"/>
    <type id="highway.secondary" priority="11" numLanes="1" speed="27.78" disallow="tram rail_urban rail rail_electric rail_fast ship container cable_car subway aircraft wheelchair scooter drone" oneway="0"/>
    <type id="highway.service" priority="1" numLanes="1" speed="5.56" allow="pedestrian delivery bicycle" oneway="0"/>
    <type id="highway.tertiary" priority="10" numLanes="1" speed="22.22" disallow="tram rail_urban rail rail_electric rail_fast ship container cable_car subway aircraft wheelchair scooter drone" oneway="0"/>
    <type id="highway.trunk" priority="13" numLanes="2" speed="27.78" disallow="pedestrian bicycle tram rail_urban rail rail_electric rail_fast ship container cable_car subway aircraft wheelchair scooter drone" oneway="0"/>
    <type id="highway.trunk_link" priority="8" numLanes="1" speed="22.22" disallow="pedestrian bicycle tram rail_urban rail rail_electric rail_fast ship container cable_car subway aircraft wheelchair scooter drone" oneway="0"/>
    <type id="highway.unclassified" priority="4" numLanes="1" speed="13.89" disallow="tram rail_urban rail rail_electric rail_fast ship container cable_car subway aircraft wheelchair scooter drone" oneway="0"/>
    <type id="railway.tram" priority="17" numLanes="1" speed="13.89" allow="tram" oneway="1"/>

    <edge id=":11368293630_w0" function="walkingarea">
        <lane id=":11368293630_w0_0" index="0" allow="pedestrian" speed="2.78" length="3.99" width="2.00" shape="2931.50,639.90 2932.39,638.11 2931.72,637.59 2931.55,637.28 2931.50,636.93 2931.56,636.54 2931.74,636.11 2929.96,635.19 2929.41,635.88 2929.09,636.05 2928.72,636.10 2928.32,636.05 2927.88,635.88 2926.99,637.67 2927.66,638.19 2927.83,638.50 2927.88,638.85 2927.82,639.24 2927.65,639.67 2929.42,640.59 2929.97,639.90 2930.30,639.73 2930.66,639.68 2931.06,639.73"/>
    </edge>
    <edge id=":11368293631_w0" function="walkingarea">
        <lane id=":11368293631_w0_0" index="0" allow="pedestrian" speed="2.78" length="4.00" width="2.00" shape="2927.14,637.74 2928.03,635.95 2927.36,635.44 2927.19,635.12 2927.14,634.77 2927.20,634.38 2927.38,633.96 2925.61,633.03 2925.05,633.72 2924.72,633.89 2924.35,633.94 2923.94,633.89 2923.50,633.72 2922.61,635.51 2923.28,636.03 2923.45,636.34 2923.50,636.69 2923.44,637.08 2923.26,637.50 2925.03,638.43 2925.59,637.74 2925.92,637.57 2926.29,637.52 2926.70,637.57"/>
    </edge>
    <edge id=":11368293633_0" function="internal">
        <lane id=":11368293633_0_0" index="0" disallow="tram rail_urban rail rail_electric rail_fast ship container cable_car subway aircraft wheelchair scooter drone" speed="27.78" length="4.94" shape="2913.89,663.14 2918.29,665.40"/>
        <lane id=":11368293633_0_1" index="1" disallow="tram rail_urban rail rail_electric rail_fast ship container cable_car subway aircraft wheelchair scooter drone" speed="27.78" length="4.94" shape="2912.43,665.98 2916.82,668.25"/>
    </edge>
    <edge id=":11368293633_w0" function="walkingarea">
        <lane id=":11368293633_w0_0" index="0" allow="pedestrian" speed="2.78" length="4.29" width="3.20" shape="2916.09,669.67 2919.02,663.98 2918.36,663.45 2918.19,663.13 2918.14,662.78 2918.20,662.39 2918.38,661.96 2916.60,661.04 2916.07,661.71 2915.75,661.87 2915.39,661.93 2915.00,661.86 2914.58,661.69 2911.64,667.38"/>
    </edge>
    <edge id=":11368293635_0" function="internal">
        <lane id=":11368293635_0_0" index="0" disallow="tram rail_urban rail rail_electric rail_fast ship container cable_car subway aircraft wheelchair scooter drone" speed="27.78" length="5.00" shape="2909.36,660.81 2913.81,663.09"/>
        <lane id=":11368293635_0_1" index="1" disallow="tram rail_urban rail rail_electric rail_fast ship container cable_car subway aircraft wheelchair scooter drone" speed="27.78" length="5.00" shape="2907.90,663.65 2912.34,665.94"/>
    </edge>
    <edge id=":11368293635_w0" function="walkingarea">
        <lane id=":11368293635_w0_0" index="0" allow="pedestrian" speed="2.78" length="4.33" width="3.20" shape="2911.61,667.36 2914.54,661.67 2913.88,661.14 2913.71,660.82 2913.66,660.47 2913.73,660.08 2913.90,659.66 2912.13,658.73 2911.59,659.40 2911.27,659.56 2910.91,659.61 2910.52,659.55 2910.09,659.38 2907.17,665.07"/>
    </edge>
    <edge id=":11368293642_w0" function="walkingarea">
        <lane id=":11368293642_w0_0" index="0" allow="pedestrian" speed="2.78" length="4.18" width="2.00" shape="2941.05,650.57 2942.86,649.73 2940.73,645.16 2938.92,646.01 2939.09,646.76 2939.00,647.06 2938.82,647.35 2938.56,647.64 2938.23,647.96 2938.77,651.20"/>
    </edge>
    <edge id=":11368293643_w0" function="walkingarea">
        <lane id=":11368293643_w0_0" index="0" allow="pedestrian" speed="2.78" length="4.21" width="2.00" shape="2943.29,655.36 2945.10,654.51 2942.92,649.85 2941.11,650.69 2941.48,652.03 2941.34,652.42 2941.00,652.64 2940.45,652.67 2939.69,652.52 2941.32,654.57 2942.17,654.50 2942.53,654.59 2942.83,654.76 2943.08,655.02"/>
    </edge>
    <edge id=":11368293644_w0" function="walkingarea">
        <lane id=":11368293644_w0_0" index="0" allow="pedestrian" speed="2.78" length="4.23" width="2.00" shape="2949.48,643.90 2949.61,641.91 2947.80,641.52 2947.46,641.17 2947.50,640.71 2947.91,640.14 2948.69,639.47 2945.85,640.15 2945.49,640.88 2945.32,641.18 2945.11,641.40 2944.81,641.52 2944.38,641.54 2944.24,643.54"/>
    </edge>
    <edge id=":11368293645_w0" function="walkingarea">
        <lane id=":11368293645_w0_0" index="0" allow="pedestrian" speed="2.78" length="4.20" width="2.00" shape="2954.48,644.11 2954.64,642.11 2953.95,641.92 2953.76,641.70 2953.63,641.40 2953.51,641.03 2953.37,640.62 2950.63,639.58 2951.67,640.98 2951.65,641.45 2951.27,641.75 2950.52,641.90 2949.40,641.90 2949.27,643.89"/>
    </edge>
    <edge id=":11368293663_w0" function="walkingarea">
        <lane id=":11368293663_w0_0" index="0" allow="pedestrian" speed="2.78" length="4.33" width="2.00" shape="2938.65,645.43 2940.46,644.58 2940.28,643.84 2940.36,643.59 2940.56,643.42 2940.88,643.33 2941.32,643.33 2941.47,641.33 2939.75,641.24 2939.14,641.18 2938.55,641.04 2937.87,640.79 2936.98,640.38 2936.10,642.18 2937.39,643.01 2937.74,643.44 2938.01,643.95 2938.29,644.60"/>
    </edge>
    <edge id=":11368337723_0" function="internal">
        <lane id=":11368337723_0_0" index="0" disallow="tram rail_urban rail rail_electric rail_fast ship container cable_car subway aircraft wheelchair scooter drone" speed="27.78" length="2.78" shape="2868.49,639.76 2870.94,641.01"/>
        <lane id=":11368337723_0_1" index="1" disallow="tram rail_urban rail rail_electric rail_fast ship container cable_car subway aircraft wheelchair scooter drone" speed="27.78" length="2.78" shape="2867.03,642.61 2869.52,643.88"/>
    </edge>
    <edge id=":11368337723_w0" function="walkingarea">
        <lane id=":11368337723_w0_0" index="0" allow="pedestrian" speed="2.78" length="3.23" width="3.20" shape="2870.51,646.16 2873.36,640.42 2872.69,639.90 2872.52,639.59 2872.47,639.24 2872.53,638.85 2872.70,638.42 2870.92,637.51 2870.39,638.18 2870.07,638.35 2869.71,638.40 2869.32,638.34 2868.89,638.17 2865.97,643.87"/>
    </edge>
    <edge id=":11964615778_w0" function="walkingarea">
        <lane id=":11964615778_w0_0" index="0" allow="pedestrian" speed="2.78" length="4.06" width="2.00" shape="2794.54,1042.87 2794.17,1040.90 2793.17,1040.88 2792.64,1040.71 2792.11,1040.44 2791.57,1040.06 2791.01,1039.58 2789.64,1041.04 2790.00,1041.60 2790.03,1041.91 2789.97,1042.24 2789.81,1042.59 2789.55,1042.96 2790.65,1044.77 2791.79,1043.62 2792.31,1043.34 2792.89,1043.16 2793.60,1043.03"/>
    </edge>
    <edge id=":11964615785_w0" function="walkingarea">
        <lane id=":11964615785_w0_0" index="0" allow="pedestrian" speed="2.78" length="0.27" width="2.00" shape="2794.60,1042.86 2794.77,1040.87 2794.57,1040.85 2794.50,1040.85 2794.43,1040.86 2794.35,1040.87 2794.24,1040.89 2794.60,1042.86"/>
    </edge>
    <edge id=":11964615801_0" function="internal">
        <lane id=":11964615801_0_0" index="0" disallow="tram rail_urban rail rail_electric rail_fast ship container cable_car subway aircraft wheelchair scooter drone" speed="22.22" length="5.00" shape="2787.75,1030.94 2783.27,1033.17"/>
    </edge>
    <edge id=":11964615801_1" function="internal">
        <lane id=":11964615801_1_0" index="0" disallow="tram rail_urban rail rail_electric rail_fast ship container cable_car subway aircraft wheelchair scooter drone" speed="22.22" length="5.00" shape="2781.84,1030.31 2786.32,1028.08"/>
    </edge>
    <edge id=":11964615801_w0" function="walkingarea">
        <lane id=":11964615801_w0_0" index="0" allow="pedestrian" speed="2.78" length="4.98" width="6.40" shape="2786.00,1035.28 2787.79,1034.39 2787.57,1033.57 2787.62,1033.21 2787.79,1032.90 2788.07,1032.62 2788.46,1032.38 2785.61,1026.65 2781.13,1028.88 2783.98,1034.61 2784.81,1034.38 2785.16,1034.44 2785.48,1034.61 2785.76,1034.89"/>
    </edge>
    <edge id=":11964615811_w0" function="walkingarea">
        <lane id=":11964615811_w0_0" index="0" allow="pedestrian" speed="2.78" length="4.53" width="2.00" shape="2791.00,1044.34 2789.45,1043.07 2788.21,1044.32 2787.67,1044.64 2787.07,1044.88 2786.33,1045.14 2785.36,1045.50 2786.12,1047.35 2786.87,1047.20 2787.12,1047.30 2787.28,1047.51 2787.35,1047.84 2787.34,1048.28 2789.48,1049.07 2789.41,1047.55 2789.59,1046.77 2789.92,1045.97 2790.39,1045.16"/>
    </edge>
    <edge id=":12821367138_0" function="internal">
        <lane id=":12821367138_0_0" index="0" disallow="tram rail_urban rail rail_electric rail_fast ship container cable_car subway aircraft wheelchair scooter drone" speed="27.78" length="17.05" shape="2871.12,641.10 2886.44,648.71"/>
        <lane id=":12821367138_0_1" index="1" disallow="tram rail_urban rail rail_electric rail_fast ship container cable_car subway aircraft wheelchair scooter drone" speed="27.78" length="17.05" shape="2869.70,643.97 2884.92,651.52"/>
    </edge>
    <edge id=":12821367138_2" function="internal">
        <lane id=":12821367138_2_0" index="0" disallow="tram rail_urban rail rail_electric rail_fast ship container cable_car subway aircraft wheelchair scooter drone" speed="27.78" length="18.90" shape="2866.68,647.33 2870.46,647.67 2874.57,648.03 2879.29,649.09 2884.92,651.52"/>
    </edge>
    <edge id=":12821367138_w0" function="walkingarea">
        <lane id=":12821367138_w0_0" index="0" allow="pedestrian" speed="2.78" length="14.86" width="3.20" shape="2884.16,652.93 2887.21,647.30 2870.13,638.82 2867.29,644.55 2866.91,645.74 2866.44,648.91 2870.32,649.37 2873.25,649.59 2875.67,649.80 2878.01,650.26 2880.70,651.23"/>
    </edge>
    <edge id=":13304936728_0" function="internal">
        <lane id=":13304936728_0_0" index="0" allow="pedestrian delivery bicycle" speed="3.65" length="4.67" shape="3027.93,1021.05 3027.38,1019.72 3027.49,1018.83 3028.27,1018.39 3029.71,1018.39"/>
    </edge>
    <edge id=":13304936729_0" function="internal">
        <lane id=":13304936729_0_0" index="0" disallow="pedestrian tram rail_urban rail rail_electric rail_fast ship container cable_car subway aircraft wheelchair scooter drone" speed="13.89" length="10.04" shape="3092.48,1056.02 3090.89,1065.93"/>
    </edge>
    <edge id=":13304936729_1" function="internal">
        <lane id=":13304936729_1_0" index="0" allow="delivery bicycle" speed="5.80" length="9.24" shape="3092.48,1056.02 3091.68,1059.07 3090.45,1060.82 3088.81,1061.27 3086.75,1060.40"/>
    </edge>
    <edge id=":13304936729_2" function="internal">
        <lane id=":13304936729_2_0" index="0" allow="delivery bicycle" speed="7.80" length="9.01" shape="3088.53,1057.74 3089.92,1059.09 3090.78,1060.90 3091.11,1063.18 3090.89,1065.93"/>
    </edge>
    <edge id=":13304936729_3" function="internal">
        <lane id=":13304936729_3_0" index="0" allow="pedestrian delivery bicycle" speed="3.65" length="4.67" shape="3088.53,1057.74 3089.08,1059.07 3088.97,1059.96 3088.19,1060.40 3086.75,1060.40"/>
    </edge>
    <edge id=":13304936729_c0" function="crossing" crossingEdges="746915316#1">
        <lane id=":13304936729_c0_0" index="0" allow="pedestrian" speed="2.78" length="3.20" width="4.00" shape="3090.59,1057.74 3093.75,1058.24" outlineShape="3090.90,1055.76 3094.06,1056.27 3095.40,1060.53 3096.04,1056.58 3094.16,1056.28 3093.43,1060.22 3090.27,1059.71"/>
    </edge>
    <edge id=":13304936729_w0" function="walkingarea">
        <lane id=":13304936729_w0_0" index="0" allow="pedestrian" speed="2.78" length="6.80" width="4.00" shape="3092.47,1066.19 3094.45,1066.50 3096.04,1056.58 3094.06,1056.27 3093.43,1060.22"/>
    </edge>
    <edge id=":13304936729_w1" function="walkingarea">
        <lane id=":13304936729_w1_0" index="0" allow="pedestrian" speed="2.78" length="3.31" width="4.00" shape="3090.27,1059.71 3090.90,1055.76 3089.42,1056.41 3087.64,1059.07 3085.86,1061.73"/>
    </edge>
    <edge id=":1886291832_0" function="internal">
        <lane id=":1886291832_0_0" index="0" disallow="pedestrian tram rail_urban rail rail_electric rail_fast ship container cable_car subway aircraft wheelchair scooter drone" speed="5.98" length="7.50" shape="2589.76,1611.91 2591.89,1613.15 2593.71,1613.61 2595.21,1613.29 2596.41,1612.19"/>
    </edge>
    <edge id=":1886291832_1" function="internal">
        <lane id=":1886291832_1_0" index="0" disallow="tram rail_urban rail rail_electric rail_fast ship container cable_car subway aircraft wheelchair scooter drone" speed="16.67" length="9.24" shape="2589.76,1611.91 2597.29,1617.27"/>
    </edge>
    <edge id=":1886291832_2" function="internal">
        <lane id=":1886291832_2_0" index="0" disallow="pedestrian tram rail_urban rail rail_electric rail_fast ship container cable_car subway aircraft wheelchair scooter drone" speed="13.89" length="7.26" shape="2592.28,1618.16 2596.41,1612.19"/>
    </edge>
    <edge id=":1886291832_3" function="internal">
        <lane id=":1886291832_3_0" index="0" disallow="pedestrian tram rail_urban rail rail_electric rail_fast ship container cable_car subway aircraft wheelchair scooter drone" speed="5.34" length="5.83" shape="2592.28,1618.16 2593.36,1616.98 2594.56,1616.44 2595.86,1616.54 2597.29,1617.27"/>
    </edge>
    <edge id=":1886291832_c0" function="crossing" crossingEdges="178257731#3">
        <lane id=":1886291832_c0_0" index="0" allow="pedestrian" speed="2.78" length="3.20" width="4.00" shape="2593.95,1612.91 2596.57,1614.75" outlineShape="2595.10,1611.27 2597.72,1613.11 2595.43,1616.39 2592.81,1614.55 2595.02,1611.22 2593.46,1610.13 2590.68,1610.61 2588.83,1613.22 2589.31,1616.12 2590.96,1617.25 2592.81,1614.55"/>
    </edge>
    <edge id=":1886291832_w0" function="walkingarea">
        <lane id=":1886291832_w0_0" index="0" allow="pedestrian" speed="2.78" length="2.62" width="4.00" shape="2596.35,1618.57 2598.22,1615.97 2597.72,1613.11 2595.43,1616.39"/>
    </edge>
    <edge id=":1886291832_w1" function="walkingarea">
        <lane id=":1886291832_w1_0" index="0" allow="pedestrian" speed="2.78" length="4.78" width="4.00" shape="2592.81,1614.55 2595.10,1611.27 2593.46,1610.13 2590.68,1610.61 2588.83,1613.22 2589.31,1616.12 2590.96,1617.25"/>
    </edge>
    <edge id=":1892892977_0" function="internal">
        <lane id=":1892892977_0_0" index="0" disallow="pedestrian tram rail_urban rail rail_electric rail_fast ship container cable_car subway aircraft wheelchair scooter drone" speed="6.51" length="4.75" shape="2989.88,1275.80 2987.68,1274.66 2985.65,1274.49 2985.44,1274.58"/>
    </edge>
    <edge id=":1892892977_1" function="internal">
        <lane id=":1892892977_1_0" index="0" disallow="pedestrian tram rail_urban rail rail_electric rail_fast ship container cable_car subway aircraft wheelchair scooter drone" speed="13.89" length="9.19" shape="2989.88,1275.80 2982.41,1270.44"/>
    </edge>
    <edge id=":1892892977_4" function="internal">
        <lane id=":1892892977_4_0" index="0" disallow="pedestrian tram rail_urban rail rail_electric rail_fast ship container cable_car subway aircraft wheelchair scooter drone" speed="6.51" length="4.28" shape="2985.44,1274.58 2983.77,1275.29 2982.06,1277.07"/>
    </edge>
    <edge id=":1892892977_2" function="internal">
        <lane id=":1892892977_2_0" index="0" disallow="pedestrian tram rail_urban rail rail_electric rail_fast ship container cable_car subway aircraft wheelchair scooter drone" speed="13.89" length="9.19" shape="2987.44,1269.62 2982.06,1277.07"/>
    </edge>
    <edge id=":1892892977_3" function="internal">
        <lane id=":1892892977_3_0" index="0" disallow="pedestrian tram rail_urban rail rail_electric rail_fast ship container cable_car subway aircraft wheelchair scooter drone" speed="5.37" length="1.91" shape="2987.44,1269.62 2986.34,1270.77 2986.05,1270.89"/>
    </edge>
    <edge id=":1892892977_5" function="internal">
        <lane id=":1892892977_5_0" index="0" disallow="pedestrian tram rail_urban rail rail_electric rail_fast ship container cable_car subway aircraft wheelchair scooter drone" speed="5.37" length="3.90" shape="2986.05,1270.89 2985.13,1271.28 2983.82,1271.17 2982.41,1270.44"/>
    </edge>
    <edge id=":1892892977_c0" function="crossing" crossingEdges="178936294#2">
        <lane id=":1892892977_c0_0" index="0" allow="pedestrian" speed="2.78" length="3.20" width="4.00" shape="2989.19,1273.34 2987.32,1275.93" outlineShape="2990.81,1274.50 2988.94,1277.10 2988.88,1277.18 2988.94,1277.10 2987.88,1276.48 2986.88,1276.17 2985.92,1276.16 2985.02,1276.47 2984.73,1276.67 2985.69,1274.77 2987.56,1272.17 2988.74,1270.56 2988.47,1271.12 2988.45,1271.72 2988.67,1272.35 2989.14,1273.03 2989.85,1273.75"/>
    </edge>
    <edge id=":1892892977_c1" function="crossing" crossingEdges="38704232#5">
        <lane id=":1892892977_c1_0" index="0" allow="pedestrian" speed="2.78" length="3.20" width="4.00" shape="2984.52,1276.39 2981.93,1274.51" outlineShape="2983.35,1278.01 2980.76,1276.13 2981.43,1275.11 2981.88,1274.21 2982.11,1273.42 2982.12,1272.74 2981.91,1272.18 2981.48,1271.74 2983.10,1272.89 2985.70,1274.77 2987.21,1276.27 2986.88,1276.17 2985.92,1276.16 2985.02,1276.47 2984.16,1277.08"/>
    </edge>
    <edge id=":1892892977_w0" function="walkingarea">
        <lane id=":1892892977_w0_0" index="0" allow="pedestrian" speed="2.78" length="3.30" width="4.00" shape="2983.35,1278.01 2984.97,1279.18 2987.77,1278.73 2988.94,1277.10 2987.88,1276.48 2986.88,1276.17 2985.92,1276.16 2985.02,1276.47 2984.16,1277.08"/>
    </edge>
    <edge id=":1892892977_w1" function="walkingarea">
        <lane id=":1892892977_w1_0" index="0" allow="pedestrian" speed="2.78" length="2.22" width="4.00" shape="2990.81,1274.50 2990.36,1271.73 2988.74,1270.56 2988.47,1271.12 2988.45,1271.72 2988.67,1272.35 2989.14,1273.03 2989.85,1273.75"/>
    </edge>
    <edge id=":1892892977_w2" function="walkingarea">
        <lane id=":1892892977_w2_0" index="0" allow="pedestrian" speed="2.78" length="2.22" width="4.00" shape="2981.48,1271.74 2980.31,1273.36 2980.76,1276.13 2981.43,1275.11 2981.88,1274.21 2982.11,1273.42 2982.12,1272.74 2981.91,1272.18"/>
    </edge>
    <edge id=":1892893030_0" function="internal">
        <lane id=":1892893030_0_0" index="0" disallow="pedestrian tram rail_urban rail rail_electric rail_fast ship container cable_car subway aircraft wheelchair scooter drone" speed="9.38" length="9.20" shape="3242.02,1150.18 3241.92,1152.52 3242.31,1154.72 3243.19,1156.78 3244.58,1158.71"/>
    </edge>
    <edge id=":1892893030_1" function="internal">
        <lane id=":1892893030_1_0" index="0" disallow="tram rail_urban rail rail_electric rail_fast ship container cable_car subway aircraft wheelchair scooter drone" speed="22.22" length="9.82" shape="3242.02,1150.18 3240.58,1159.89"/>
    </edge>
    <edge id=":1892893030_w0" function="walkingarea">
        <lane id=":1892893030_w0_0" index="0" allow="pedestrian" speed="2.78" length="8.20" width="3.20" shape="3245.78,1157.66 3247.28,1156.34 3243.61,1150.42 3240.44,1149.95 3239.00,1159.66 3242.17,1160.13"/>
    </edge>
    <edge id=":1892893054_0" function="internal">
        <lane id=":1892893054_0_0" index="0" disallow="pedestrian tram rail_urban rail rail_electric rail_fast ship container cable_car subway aircraft wheelchair scooter drone" speed="13.89" length="7.20" shape="2848.73,1174.34 2842.88,1170.14"/>
    </edge>
    <edge id=":1892893054_1" function="internal">
        <lane id=":1892893054_1_0" index="0" disallow="pedestrian tram rail_urban rail rail_electric rail_fast ship container cable_car subway aircraft wheelchair scooter drone" speed="5.37" length="5.81" shape="2848.73,1174.34 2847.58,1173.24 2847.06,1172.03 2847.17,1170.72 2847.90,1169.31"/>
    </edge>
    <edge id=":1892893054_2" function="internal">
        <lane id=":1892893054_2_0" index="0" disallow="pedestrian tram rail_urban rail rail_electric rail_fast ship container cable_car subway aircraft wheelchair scooter drone" speed="5.99" length="7.49" shape="2842.53,1176.78 2843.78,1174.66 2844.25,1172.85 2843.95,1171.34 2842.88,1170.14"/>
    </edge>
    <edge id=":1892893054_3" function="internal">
        <lane id=":1892893054_3_0" index="0" disallow="tram rail_urban rail rail_electric rail_fast ship container cable_car subway aircraft wheelchair scooter drone" speed="22.22" length="9.20" shape="2842.53,1176.78 2847.90,1169.31"/>
    </edge>
    <edge id=":1892893054_c0" function="crossing" crossingEdges="178936294#3">
        <lane id=":1892893054_c0_0" index="0" allow="pedestrian" speed="2.78" length="3.20" width="4.00" shape="2848.04,1171.87 2846.17,1174.47" outlineShape="2849.66,1173.04 2847.79,1175.64 2844.54,1173.30 2846.41,1170.70"/>
    </edge>
    <edge id=":1892893054_w0" function="walkingarea">
        <lane id=":1892893054_w0_0" index="0" allow="pedestrian" speed="2.78" length="4.74" width="4.00" shape="2841.95,1171.43 2840.78,1173.06 2841.23,1175.85 2843.83,1177.72 2846.62,1177.26 2847.79,1175.64 2844.54,1173.30"/>
    </edge>
    <edge id=":1892893054_w1" function="walkingarea">
        <lane id=":1892893054_w1_0" index="0" allow="pedestrian" speed="2.78" length="2.56" width="4.00" shape="2846.41,1170.70 2849.66,1173.04 2849.20,1170.25 2846.60,1168.38"/>
    </edge>
    <edge id=":1892893076_0" function="internal">
        <lane id=":1892893076_0_0" index="0" disallow="pedestrian tram rail_urban rail rail_electric rail_fast ship container cable_car subway aircraft wheelchair scooter drone" speed="3.65" length="4.67" shape="3502.43,1372.66 3502.61,1374.09 3502.27,1374.92 3501.40,1375.14 3500.01,1374.76"/>
    </edge>
    <edge id=":1892893076_w0" function="walkingarea">
        <lane id=":1892893076_w0_0" index="0" allow="pedestrian" speed="2.78" length="8.40" width="2.00" shape="3498.81,1375.81 3497.30,1377.13 3505.14,1370.29 3503.63,1371.61"/>
    </edge>
    <edge id=":1892893078_0" function="internal">
        <lane id=":1892893078_0_0" index="0" disallow="pedestrian tram rail_urban rail rail_electric rail_fast ship container cable_car subway aircraft wheelchair scooter drone" speed="5.98" length="7.50" shape="3277.57,1196.31 3278.88,1197.27 3280.41,1197.42 3282.17,1196.77 3284.16,1195.32"/>
    </edge>
    <edge id=":1892893078_1" function="internal">
        <lane id=":1892893078_1_0" index="0" disallow="pedestrian tram rail_urban rail rail_electric rail_fast ship container cable_car subway aircraft wheelchair scooter drone" speed="13.89" length="7.21" shape="3277.57,1196.31 3282.33,1201.73"/>
    </edge>
    <edge id=":1892893078_2" function="internal">
        <lane id=":1892893078_2_0" index="0" disallow="tram rail_urban rail rail_electric rail_fast ship container cable_car subway aircraft wheelchair scooter drone" speed="22.22" length="9.22" shape="3277.22,1201.39 3284.16,1195.32"/>
    </edge>
    <edge id=":1892893078_3" function="internal">
        <lane id=":1892893078_3_0" index="0" disallow="pedestrian tram rail_urban rail rail_electric rail_fast ship container cable_car subway aircraft wheelchair scooter drone" speed="5.40" length="5.83" shape="3277.22,1201.39 3278.56,1200.53 3279.87,1200.29 3281.12,1200.69 3282.33,1201.73"/>
    </edge>
    <edge id=":1892893078_c0" function="crossing" crossingEdges="178936286#0">
        <lane id=":1892893078_c0_0" index="0" allow="pedestrian" speed="2.78" length="3.20" width="4.00" shape="3277.69,1198.87 3280.10,1196.76" outlineShape="3276.37,1197.37 3278.78,1195.26 3281.41,1198.26 3279.01,1200.37 3276.37,1197.37 3276.17,1200.17 3278.26,1202.60 3279.01,1200.37"/>
    </edge>
    <edge id=":1892893078_w0" function="walkingarea">
        <lane id=":1892893078_w0_0" index="0" allow="pedestrian" speed="2.78" length="4.74" width="4.00" shape="3283.53,1200.67 3285.03,1199.35 3285.22,1196.52 3283.10,1194.12 3280.28,1193.94 3278.78,1195.26 3281.41,1198.26"/>
    </edge>
    <edge id=":1892893078_w1" function="walkingarea">
        <lane id=":1892893078_w1_0" index="0" allow="pedestrian" speed="2.78" length="2.56" width="4.00" shape="3279.01,1200.37 3276.37,1197.37 3276.17,1200.17 3278.26,1202.60"/>
    </edge>
    <edge id=":1892893082_0" function="internal">
        <lane id=":1892893082_0_0" index="0" disallow="pedestrian tram rail_urban rail rail_electric rail_fast ship container cable_car subway aircraft wheelchair scooter drone" speed="3.65" length="4.67" shape="3994.19,2520.30 3994.70,2521.65 3994.56,2522.53 3993.77,2522.95 3992.33,2522.90"/>
    </edge>
    <edge id=":1892893082_w0" function="walkingarea">
        <lane id=":1892893082_w0_0" index="0" allow="pedestrian" speed="2.78" length="8.40" width="2.00" shape="3991.40,2524.20 3990.23,2525.83 3996.29,2517.37 3995.12,2519.00"/>
    </edge>
    <edge id=":1892893094_0" function="internal">
        <lane id=":1892893094_0_0" index="0" disallow="pedestrian tram rail_urban rail rail_electric rail_fast ship container cable_car subway aircraft wheelchair scooter drone" speed="6.51" length="4.71" shape="3394.91,1320.65 3393.31,1322.51 3392.68,1324.44 3392.71,1324.66"/>
    </edge>
    <edge id=":1892893094_1" function="internal">
        <lane id=":1892893094_1_0" index="0" disallow="pedestrian tram rail_urban rail rail_electric rail_fast ship container cable_car subway aircraft wheelchair scooter drone" speed="13.89" length="9.15" shape="3394.91,1320.65 3388.00,1326.64"/>
    </edge>
    <edge id=":1892893094_4" function="internal">
        <lane id=":1892893094_4_0" index="0" disallow="pedestrian tram rail_urban rail rail_electric rail_fast ship container cable_car subway aircraft wheelchair scooter drone" speed="6.51" length="4.28" shape="3392.71,1324.66 3393.02,1326.44 3394.34,1328.53"/>
    </edge>
    <edge id=":1892893094_2" function="internal">
        <lane id=":1892893094_2_0" index="0" disallow="pedestrian tram rail_urban rail rail_electric rail_fast ship container cable_car subway aircraft wheelchair scooter drone" speed="13.89" length="9.17" shape="3388.33,1321.60 3394.34,1328.53"/>
    </edge>
    <edge id=":1892893094_3" function="internal">
        <lane id=":1892893094_3_0" index="0" disallow="pedestrian tram rail_urban rail rail_electric rail_fast ship container cable_car subway aircraft wheelchair scooter drone" speed="5.33" length="1.91" shape="3388.33,1321.60 3389.21,1322.92 3389.27,1323.24"/>
    </edge>
    <edge id=":1892893094_5" function="internal">
        <lane id=":1892893094_5_0" index="0" disallow="pedestrian tram rail_urban rail rail_electric rail_fast ship container cable_car subway aircraft wheelchair scooter drone" speed="5.33" length="3.87" shape="3389.27,1323.24 3389.44,1324.20 3389.04,1325.44 3388.00,1326.64"/>
    </edge>