<?xml version="1.0" encoding="UTF-8"?>

<!-- generated on 2026-03-25 23:52:27.810451 by Eclipse SUMO randomTrips.py v1_26_0+0000-fa7df22d7f1
<configuration>
    <net-file value="final_with_crossings.net.xml"/>
    <output-trip-file value="ped_routes.rou.xml"/>
    <persontrips value="True"/>
    <prefix value="p"/>
    <trip-attributes value="departPos=&quot;random&quot;"/>
</configuration>
-->

<!-- generated on 2026-03-25T23:52:26.350090+02:00 by Eclipse SUMO duarouter 1.26.0
<duarouterConfiguration xmlns:xsi="http://www.w3.org/2001/XMLSchema-instance" xsi:noNamespaceSchemaLocation="http://sumo.dlr.de/xsd/duarouterConfiguration.xsd">

    <input>
        <net-file value="final_with_crossings.net.xml"/>
        <route-files value="ped_routes.rou.xml"/>
    </input>

    <output>
        <output-file value="routes.rou.xml"/>
        <alternatives-output value="NUL"/>
    </output>

    <time>
        <begin value="0"/>
        <end value="3600"/>
    </time>

    <report>
        <no-warnings value="true"/>
        <ignore-errors value="true"/>
        <no-step-log value="true"/>
    </report>

</duarouterConfiguration>
-->

<routes xmlns:xsi="http://www.w3.org/2001/XMLSchema-instance" xsi:noNamespaceSchemaLocation="http://sumo.dlr.de/xsd/routes_file.xsd">
    <person id="p0" depart="0.00" departPos="random">
        <walk edges="27000966#2 27000966#1 -27000966#0 1228562624 533894732#6 749330687 533894730#6 533894730#7 533894730#8 178498377#0 178498377#1 178498377#2 178498377#3 178498377#4 178498377#5 178498377#6 178498377#7 -178498365#0 -178498365#1 -178498365#2 -178498365#3 -178498365#5 -178498365#6 -178498365#7 -178498365#8"/>
    </person>
    <person id="p1" depart="1.00" departPos="random">
        <walk edges="-747038111#0 178936289#11 178936289#12 -747038105 -27000966#4 -398944805 -1290464049#0 -1290464049#2 -1290464049#3 -1290464049#4 392694041 392694039#0 1228562623#1 178499086#1 178499086#0 -38704236#4 38704236#5 -684300246#2 -684300246#1 -684300246#0"/>
    </person>
    <person id="p2" depart="2.00" departPos="random">
        <walk edges="42059095#8 42059095#7 42059095#6 42059095#5 42059095#3 42059095#2 42059095#1 178936294#0 178936294#1 178936294#2 38704232#4 38704232#2 38704232#1 38704232#0"/>
    </person>
    <person id="p3" depart="3.00" departPos="random">
        <walk edges="741664920 -684294575#3 -684294575#2 -684294575#1 -684294575#0 434698489#11 434698489#12 1181247149 1181247150 1228562623#7 1228562623#6 42343815#1 42343815#0 -27000966#15 -27000966#13 27000966#12 27000966#11 -27000966#10 -27000966#9 1290464046 1290464047#1 1290464043 -27000966#7 -27000966#5 -747038105 178936289#13 178936289#15 178936289#16 -235063747"/>
    </person>
    <person id="p4" depart="4.00" departPos="random">
        <walk edges="178498377#5 178498377#4 178498377#3 178498377#2 178498377#1 178498377#0 533894730#8 533894730#7 533894730#6 749330687 533894732#6 1228562624 -27000966#0 27000966#1 -27000966#2 38704238#0 38704238#1 747038105 178936289#12 178936289#11 178936289#10 178936289#9 178936289#8 178936289#7 178936289#6 178936289#5 178936289#4 178936289#3 178936289#2 178936289#1 178936289#0 557409301#2 557409301#0 434698489#4 434698489#3 434698489#2 434698489#1 -557409303#1 -178936285#0"/>
    </person>
    <person id="p5" depart="5.00" departPos="random">
        <walk edges="-684300245#0 -684300246#1 -684300246#2 38704236#7 533894732#11 533894732#10 533894732#9 533894732#8 533894732#7 533894732#6 533894732#5 533894732#4 533894732#3 533894732#2 533894732#1 533894732#0 178939362#0"/>
    </person>
    <person id="p6" depart="6.00" departPos="random">
        <walk edges="-178499086#0 -178499086#1 1228562623#0 533894732#9 533894732#8 533894732#7 749330687 533894730#6 533894730#7 533894730#8 178498377#0 178498377#1 178498377#2 178498377#3 178498377#4 178498377#5 -561429557#0 -561429557#1 -561429557#2 -561429557#4 -561429557#5 -561429557#6"/>
    </person>
    <person id="p7" depart="7.00" departPos="random">
        <walk edges="27000968#3 42059095#5 42059095#3 747038114 42059097#7 -747239090 265095722#5 178936307#5 235063745#0"/>
    </person>
    <person id="p8" depart="8.00" departPos="random">
        <walk edges="-684300245#2 -684300245#3 -684300246#2 38704236#5 -38704236#4 178499086#0 178499086#1 1228562623#1 392694039#0 392694041 -1290464049#4 -1290464049#3 -1290464049#2 -1290464049#0 -398944805 -27000966#4 -747038105 178936289#12 38704234#2 38704234#3 38704234#4 38704234#5 38704234#7 235064047#4"/>
    </person>
    <person id="p9" depart="9.00" departPos="random">
        <walk edges="533894732#7 398944808#0 -398944810 398944809#0 -398944807#0 -1290464049#5"/>
    </person>
    <person id="p10" depart="10.00" departPos="random">
        <walk edges="533894732#3 533894732#2 746915317#0 746915317#2 746915317#4 746915316#0 746915316#1 746915316#2 746915316#3 746915316#4 38704234#4 38704234#5 38704234#7 38704234#8"/>
    </person>
    <person id="p11" depart="11.00" departPos="random">
        <walk edges="1190307841 -907736156 178937091#6 27000966#11 -27000966#10 -27000966#9 1290464046 1290464047#1 1290464043 -27000966#7 -27000966#5 -27000966#4"/>
    </person>
    <person id="p12" depart="12.00" departPos="random">
        <walk edges="747354495#1 -907275983 178498377#0 533894730#8 533894730#7 533894730#6 749330687 533894732#6 1228562624 -27000966#0 27000966#1 -27000966#2 -27000966#3 -27000966#4 -27000966#5 -27000966#7 1290464043 1290464047#1 1290464046 -27000966#9 -27000966#10 27000966#11 27000966#12 -27000966#13 -27000966#15 42343815#0 42343815#1 1228562623#6 1228562623#7 1181247150 1181247149"/>
    </person>
    <person id="p13" depart="13.00" departPos="random">
        <walk edges="-235063832#1 -235064111#1 -235064111#2 -235064111#3 -235064111#6 -235064111#7 533894732#0 533894730#15 533894730#14 -235063990#2 -235063990#1 178937089#5 178937089#4 178937089#3 -235063948#1"/>
    </person>
    <person id="p14" depart="14.00" departPos="random">
        <walk edges="677788793#2 677789438#0 677789438#1 434698489#6 557409301#0 557409301#2 530283032#3 38704232#12 38704232#11 38704232#10 38704232#9 38704232#8 38704232#7 38704232#6 38704232#5 178936294#2 178936294#1 235064065#0 235064065#1"/>
    </person>
    <person id="p15" depart="15.00" departPos="random">
        <walk edges="533894732#4 533894732#3 533894732#2 746915317#0 747239094 235064050#0 235064050#1 746915319#1 746915319#2 746915319#3 746915319#4 746915319#6 42059097#0 42059097#2 42059097#4 42059097#5 42059095#0"/>
    </person>
    <person id="p16" depart="16.00" departPos="random">
        <walk edges="1290464049#4 -1290464049#3 -1290464049#2 -1290464049#0 -398944805 -27000966#4 -747038105 178936289#12 38704234#2 38704234#3 38704234#4 38704234#5 38704234#7 38704234#8 178936299#1 235063757#3 235063757#2"/>
    </person>
    <person id="p17" depart="17.00" departPos="random">
        <walk edges="561429557#6 561429557#7 235063990#0 235063990#1 235063990#2 533894730#14 533894730#15 533894732#0 235064111#7 235064111#6 235064111#3 235064111#2"/>
    </person>
    <person id="p18" depart="18.00" departPos="random">
        <walk edges="684294575#4 684294575#3 684294575#2 684294575#1 684294575#0 434698489#11 434698489#12 1181247149 1181247150 1228562623#7 1228562623#6 42343815#1 42343815#0 -27000966#15 -27000966#13 27000966#12 27000966#11 -27000966#10 -27000966#9 1290464046 1290464047#1 1290464043 -27000966#7 -27000966#5 -747038105 178936289#13 -747038106 746915317#4 235063588#1 -235063588#0 235064111#6 235064111#7 533894732#0 533894730#15 533894730#14 235063990#2 235063990#1"/>
    </person>
    <person id="p19" depart="19.00" departPos="random">
        <walk edges="38704236#4 178499086#0 178499086#1 1228562623#0 533894732#9 533894732#8 533894732#7 749330687 533894730#6 533894730#7 533894730#8 178498377#0 178498377#1 178498377#2 178498377#3 -178937089#1"/>
    </person>
    <person id="p20" depart="20.00" departPos="random">
        <walk edges="-692770122#0 -178936285#9 684294575#2 684294575#1 684294575#0 434698489#11 434698489#12 1181247149 1181247150 1228562623#7 1228562623#6 42343815#1 42343815#0 -27000966#15 -27000966#13 27000966#12 27000966#11 -27000966#10 -27000966#9 1290464046 1290464047#1 1290464043 -27000966#7 -27000966#5 -27000966#4 -27000966#3 -27000966#2 27000966#1 -27000966#0 1228562624 533894732#6 749330687 533894730#6 533894730#7 533894730#8 178498377#0 178498377#1 178498377#2 178498377#3 178498377#4 178498377#5 178498377#6 -747354498"/>
    </person>
    <person id="p21" depart="21.00" departPos="random">
        <walk edges="-235063728 38704232#2 38704232#1 38704232#0 38704234#5 38704234#7 235064047#4 -235063485 -692782520"/>
    </person>
    <person id="p22" depart="22.00" departPos="random">
        <walk edges="-235063953#2 533894730#11 533894730#12 533894730#13 533894730#14 533894730#15 746915319#0 746915319#1 746915319#2 746915319#3 746915319#4 746915319#6 42059097#0 42059097#2 42059097#4 42059097#5 42059095#0 42059095#1 42059095#2 -747038114"/>
    </person>
    <person id="p23" depart="23.00" departPos="random">
        <walk edges="27000966#12 -27000966#13 747038113 1228562623#4"/>
    </person>
    <person id="p24" depart="24.00" departPos="random">
        <walk edges="1290464043 1290464047#1 1290464046 -27000966#9 -27000966#10 27000966#11 27000966#12 -27000966#13 -27000966#15 42343815#0 42343815#1 1228562623#6 1228562623#7 1181247150 1181247149 434698489#12 434698489#11 434698489#10 434698489#9 -677790077#1 -677790077#0"/>
    </person>
    <person id="p25" depart="25.00" departPos="random">
        <walk edges="-747038104 235063714#3 235063714#1 235063714#0 38704238#1 747038105"/>
    </person>
    <person id="p26" depart="26.00" departPos="random">
        <walk edges="27000968#1 178936289#4 235064085#2"/>
    </person>
    <person id="p27" depart="27.00" departPos="random">
        <walk edges="-392694039#0 392694041 -1290464049#4 -1290464049#3 -1290464049#2 -1290464049#0 -398944805 -27000966#4 -747038105 178936289#12 38704234#2 38704234#3 38704234#4 38704234#5 38704234#7 235064065#3 235063692 42059097#2 42059097#4 42059097#5 42059095#0"/>
    </person>
    <person id="p28" depart="28.00" departPos="random">
        <walk edges="-38704236#2 -38704236#3 -178499086#0 -178499086#1 1228562623#1 392694039#0 392694041 1290464049#5"/>
    </person>
    <person id="p29" depart="29.00" departPos="random">
        <walk edges="907301890 727745324#1 747038113 -27000966#13 27000966#12 27000966#11 -27000966#10 -27000966#9 1290464046 1290464047#1 1290464043 -27000966#7 -27000966#5 -27000966#4 27000966#3"/>
    </person>
    <person id="p30" depart="30.00" departPos="random">
        <walk edges="235063779 265095722#3 747239090 42059097#6 42059095#0 178936294#0 178936294#1 178936294#2 38704232#5"/>
    </person>
    <person id="p31" depart="31.00" departPos="random">
        <walk edges="624199073#0 557409301#2 530283032#3 530283032#4 530283032#5"/>
    </person>
    <person id="p32" depart="32.00" departPos="random">
        <walk edges="-692770122#1 178936285#9 -178936285#10"/>
    </person>
    <person id="p33" depart="33.00" departPos="random">
        <walk edges="-905359329 727745324#0 727745324#1 747038113 -27000966#13 27000966#12 27000966#11 -27000966#10 -27000966#9 1290464046 1290464047#1 1290464043 -27000966#7 -27000966#5 -38704238#1 235063714#0 235063714#1 235063714#3 -747038104"/>
    </person>
    <person id="p34" depart="34.00" departPos="random">
        <walk edges="-677790077#1 434698489#8 434698489#7 434698489#6 557409301#0 557409301#2 178936289#0 178936289#1 178936289#2 178936289#3 178936289#4 178936289#5 178936289#6 178936289#7 178936289#8 178936289#9 178936289#10 747038111#0"/>
    </person>
    <person id="p35" depart="35.00" departPos="random">
        <walk edges="692770123#0 434698489#8 434698489#9 434698489#10 434698489#11 434698489#12 1181247149 1181247150 1228562623#7 1162981413#2 38704236#0 -905359329 -905359326#1"/>
    </person>
    <person id="p36" depart="36.00" departPos="random">
        <walk edges="27000971#4 27000971#3 27000971#2 27000971#1 27000971#0 1181247149 1181247150 1228562623#7 1228562623#6 42343815#1 42343815#0 -27000966#15 -27000966#13 27000966#12 27000966#11 -27000966#10 -27000966#9 1290464046 1290464047#1 1290464043 -27000966#7 -27000966#5 -747038105 178936289#13 -747038106 746915317#4 235063588#1 -235063588#0 235064111#6 235064111#7 533894732#0 1482594830#1"/>
    </person>
    <person id="p37" depart="37.00" departPos="random">
        <walk edges="746915316#1 746915316#0 746915317#4 746915317#2 -235063747 178936289#17"/>
    </person>
    <person id="p38" depart="38.00" departPos="random">
        <walk edges="-747038102 38704232#4 38704232#5 38704232#6 38704232#7 38704232#8 38704232#9 38704232#10 38704232#11 38704232#12 530283032#3 557409301#2 557409301#0 434698489#6 434698489#7 434698489#8 434698489#9 -692770122#0 -178936285#9 684294575#3 684294575#4 684294575#5 27000989#5 -741929960#0 -741845184#1"/>
    </person>
    <person id="p39" depart="39.00" departPos="random">
        <walk edges="235063832#1 235063832#2 746915316#4 38704234#3 38704234#2 38704234#1 38704234#0 -27000966#7 1290464043 1290464047#1 1290464046 -27000966#9 -27000966#10 27000966#11 27000966#12 -27000966#13 -27000966#15 42343815#0 42343815#1 1228562623#6 1228562623#7 1181247150 1181247149 434698489#12 692015071#1 692015071#0 27000989#4 -741929960#0 -741929960#1"/>
    </person>
    <person id="p40" depart="40.00" departPos="random">
        <walk edges="235064009#1 235064009#0 -561429557#6 -561429557#7 -235063990#0 -235063990#1 -235063990#2 533894730#14 533894730#15 533894732#0 -235064111#7 -235064111#6 -235064111#3 -235064111#2 -235064111#1 235064111#0 38704234#5 38704232#0 38704232#1 38704232#2 38704232#4 38704232#5 38704232#6 38704232#7 38704232#8 38704232#9 38704232#10 38704232#11 38704232#12 530283032#3 557409301#2 557409301#0 434698489#6 677789438#1 677789438#0 27000989#13 741929958#0 741845185#1 741845185#0"/>
    </person>
    <person id="p41" depart="41.00" departPos="random">
        <walk edges="178257731#2 27000989#16 27000989#15 -677789438#0 -677789438#1 434698489#7 434698489#8 434698489#9 434698489#10 434698489#11 434698489#12 1181247149 1181247150 1228562623#7 1162981413#2 38704236#0 38704236#2 38704236#3 38704236#4 38704236#5 -684300246#2 -684300245#3 -684300245#2 -684300245#1"/>
    </person>
    <person id="p42" depart="42.00" departPos="random">
        <walk edges="907736156 178937091#5 178937091#4 178937091#3 178937091#2 38704232#6 38704232#5 178936294#2 178936294#1 -235064065#0 -235064065#1 -235063675 235063489"/>
    </person>
    <person id="p43" depart="43.00" departPos="random">
        <walk edges="-235063800 235063757#5 235063757#4 235063757#3 235063562 692782520 746915319#4 746915319#3 746915319#2 746915319#1 746915319#0 533894730#15 533894730#14 -235063990#2 -235063990#1 -178937089#5 -178937089#4 -178937089#3 -178937089#2"/>
    </person>
    <person id="p44" depart="44.00" departPos="random">
        <walk edges="-235063990#1 235064002#2 235064002#1 235064002#0 235063567#1 235063567#0 178498377#1 178498377#0 533894730#8 533894730#7 533894730#6 27000957#0"/>
    </person>
    <person id="p45" depart="45.00" departPos="random">
        <walk edges="533894730#4 533894730#5 533894730#6 533894730#7 533894730#8 178498377#0 178498377#1 178498377#2 178498377#3 178498377#4 178498377#5"/>
    </person>
    <person id="p46" depart="46.00" departPos="random">
        <walk edges="-235063588#0 235063588#1 746915317#4 -747038106 -235063447#1 -235063447#0 235063714#0 38704238#0 -27000966#2 -1290630556 -1290464049#8 1290464049#7"/>
    </person>
    <person id="p47" depart="47.00" departPos="random">
        <walk edges="907736154 38704235#0 -879228345 38704234#0 38704234#1 38704234#2 38704234#3 38704234#4 38704234#5 38704234#7 235064065#3 235063692"/>
    </person>
    <person id="p48" depart="48.00" departPos="random">
        <walk edges="879228344#0 -879228344#0 -27000966#9 -27000966#10 27000966#11 27000966#12 -27000966#13 -27000966#15 42343815#0 42343815#1 1228562623#6 1228562623#7 1181247150 1181247149 434698489#12 434698489#11 684294575#0 684294575#1 684294575#2 684294575#3"/>
    </person>
    <person id="p49" depart="49.00" departPos="random">
        <walk edges="-1450700320 746915316#1 746915316#0 -747038106 -235063447#1 -235063447#0 235063714#0 38704238#0 -27000966#2 -1290630556 -1290464049#8 -398944807#2 -398944807#1 398944807#0"/>
    </person>
    <person id="p50" depart="50.00" departPos="random">
        <walk edges="38704232#12 38704232#11 38704232#10 38704232#9 38704232#8 38704232#7 38704232#6 38704232#5 38704232#4 38704232#2 38704232#1 38704232#0 38704234#4 746915316#4 746915316#3 746915316#2 746915316#1 746915316#0 -747038106 -235063447#1 -235063447#0 235063714#1 235063714#3 235063714#4"/>
    </person>
    <person id="p51" depart="51.00" departPos="random">
        <walk edges="-747038103 235063714#1 235063714#0 -38704238#1 27000966#4"/>
    </person>
    <person id="p52" depart="52.00" departPos="random">
        <walk edges="-235064002#0 -235063567#1 -235063567#0 178498377#1 178498377#0 533894730#8 533894730#7 533894730#6 749330687 533894732#6 1228562624 -27000966#0 27000966#1 -27000966#2 38704238#0 38704238#1 747038105 178936289#12 178936289#11 178936289#10 178936289#9 178936289#8 178936289#7 178936289#6 178936289#5 178936289#4 178936289#3 178936289#2 178936289#1 178936289#0 557409301#2 557409301#0 -557409300#1 178936285#4"/>
    </person>
    <person id="p53" depart="53.00" departPos="random">
        <walk edges="178936289#11 38704234#2 38704234#3 746915316#4 235063832#2 -235064111#1 -235064111#2 -235064111#3 -235064111#6 -235064111#7 533894732#0 533894730#15 533894730#14 -235063990#2 -235063990#1 -235063990#0 -561429557#7 -561429557#6 -561429557#5 747354488"/>
    </person>
    <person id="p54" depart="54.00" departPos="random">
        <walk edges="692770123#0 434698489#8 434698489#9 -692770122#0 -178936285#9 684294575#3 684294575#4 684294575#5 27000989#5 -741929960#0 -741929960#1"/>
    </person>
    <person id="p55" depart="55.00" departPos="random">
        <walk edges="178937091#3 178937091#4 178936289#6 178936289#7 178936289#8 178936289#9 178936289#10 178936289#11 178936289#12 -747038105 -27000966#4 -398944805"/>
    </person>
    <person id="p56" depart="56.00" departPos="random">
        <walk edges="741929960#2 741929960#1 741929960#0 27000989#4 692015071#0 692015071#1 434698489#12 1181247149 1181247150 1228562623#7 1162981413#2 38704236#0 38704236#2 38704236#3 38704236#4 38704236#5 684300246#2"/>
    </person>
    <person id="p57" depart="57.00" departPos="random">
        <walk edges="235064085#2 178936289#5 178936289#6 178936289#7 178936289#8 178936289#9 178936289#10 178936289#11 178936289#12 747038105 38704238#1 38704238#0 -27000966#2"/>
    </person>
    <person id="p58" depart="58.00" departPos="random">
        <walk edges="434698489#4 557409301#0 557409301#2 178936289#0 178936289#1 178936289#2 178936289#3 178936289#4 178936289#5 178936289#6 178936289#7 178936289#8 178936289#9 178936289#10 178936289#11 178936289#12 178936289#13 -235063447#1 235063726#0 235063726#1"/>
    </person>
    <person id="p59" depart="59.00" departPos="random">
        <walk edges="530283032#7 265095722#0 265095722#2 265095722#3 235063703#0"/>
    </person>
    <person id="p60" depart="60.00" departPos="random">
        <walk edges="-1190307841 -907736156 178937091#5 178937091#4 178937091#3 178937091#2 178937091#1 -907699461"/>
    </person>
    <person id="p61" depart="61.00" departPos="random">
        <walk edges="-178498365#2 -178498365#3 -178498365#5 -178498365#6 -178498365#7 747354489 561429557#4 -561429557#5 -561429557#6 -561429557#7 -235063990#0 -235063990#1 -235063990#2 533894730#14 533894730#15 746915319#0 746915319#1 746915319#2"/>
    </person>
    <person id="p62" depart="62.00" departPos="random">
        <walk edges="692782520 746915319#4 746915319#3 746915319#2 746915319#1 746915319#0 533894730#15 533894730#14 235063990#2 235063990#1 235063990#0 561429557#8"/>
    </person>
    <person id="p63" depart="63.00" departPos="random">
        <walk edges="692782520 746915319#6 42059097#0 42059097#2 42059097#4 42059097#5 42059095#0 42059095#1 42059095#2 747038114"/>
    </person>
    <person id="p64" depart="64.00" departPos="random">
        <walk edges="-235063745#1 235063745#1 235063745#0 178936307#4 178936307#3 178936307#2"/>
    </person>
    <person id="p65" depart="65.00" departPos="random">
        <walk edges="-235063661#0 178936294#2 38704232#5 38704232#6 38704232#7 38704232#8 38704232#9 38704232#10 38704232#11 38704232#12 530283032#3 557409301#2 557409301#0 434698489#4 434698489#3"/>
    </person>
    <person id="p66" depart="66.00" departPos="random">
        <walk edges="434698489#9 434698489#8 434698489#7 434698489#6 557409301#0 557409301#2 530283032#3 38704232#12 38704232#11 38704232#10 38704232#9 38704232#8 38704232#7 38704232#6 38704232#5 178936294#2 178936294#1 -235064065#0 -235064065#1 -235064065#2"/>
    </person>
    <person id="p67" depart="67.00" departPos="random">
        <walk edges="178936294#6 178936294#5 178936294#4 178936294#3 178936294#2 178936294#1 -235064065#0 -235064065#1 -235064065#2 235063692 235063642 235063757#4 235063757#3 235063757#2 235063757#1 235063757#0"/>
    </person>
    <person id="p68" depart="68.00" departPos="random">
        <walk edges="-747038102 38704232#4 178936294#3 178936294#4 178936294#5 178936294#6 -27000966#10 27000966#11 27000966#12 -27000966#13 -27000966#15 42343815#0 42343815#1 1228562623#6 1228562623#7 1181247150 1181247149 434698489#12 692015071#1 692015071#0"/>
    </person>
    <person id="p69" depart="69.00" departPos="random">
        <walk edges="178498377#6 178498377#5 178498377#4 178498377#3 178498377#2 178498377#1 178498377#0 533894730#8 533894730#7 533894730#6 749330687 533894732#6 1228562624 -27000966#0 27000966#1 -27000966#2 -27000966#3 -27000966#4 -27000966#5 -27000966#7 1290464043 1290464047#1 1290464046 -27000966#9 -27000966#10 27000966#11 27000966#12 -27000966#13 -27000966#15 42343815#0 42343815#1 1228562623#6 1228562623#7 1181247150 1181247149 434698489#12 434698489#11 -684294575#0"/>
    </person>
    <person id="p70" depart="70.00" departPos="random">
        <walk edges="235063726#1 235063726#0 235063447#1 747038106 746915316#0 746915316#1 746915316#2 746915316#3 746915316#4 38704234#4 38704234#5 38704234#7 235064065#3 235063692 42059097#2 42059097#4 42059097#5 42059095#0 42059095#1"/>
    </person>
    <person id="p71" depart="71.00" departPos="random">
        <walk edges="-561429557#8 533894729#0 533894730#14 533894730#13 533894730#12 533894730#11 533894730#10 533894730#9 533894730#8 533894730#7 533894730#6 749330687 533894732#7 533894732#8 533894732#9 533894732#10 533894732#11 38704236#7 -684300246#2 -684300245#3 -684300245#2 -905359324"/>
    </person>
    <person id="p72" depart="72.00" departPos="random">
        <walk edges="907699462 530283032#2 530283032#3 38704232#12 38704232#11 235064063#2 235064063#1 42059095#7 42059095#6 27000968#3"/>
    </person>
    <person id="p73" depart="73.00" departPos="random">
        <walk edges="178936285#7 -692770123#0 434698489#7 434698489#6 557409301#0 557409301#2 178936289#0 178936289#1 178936289#2 178936289#3 178936289#4 178936289#5 178936289#6 178936289#7 178936289#8 178936289#9 178936289#10 178936289#11 178936289#12 747038105 38704238#1 38704238#0 -27000966#2 27000966#1 -27000966#0 1228562624 533894732#6 749330687 533894730#6 533894730#7 533894730#8 178498377#0 178498377#1 235063567#0"/>
    </person>
    <person id="p74" depart="74.00" departPos="random">
        <walk edges="-235064057#0 746915318#4 -27000966#15 747038113 727745324#1 727745324#0 -38704236#2 38704236#3 38704236#4 38704236#5 -684300246#2"/>
    </person>
    <person id="p75" depart="75.00" departPos="random">
        <walk edges="1181247151 1181247152 1384805072#0 1228562623#6 42343815#1 42343815#0 -27000966#15 -27000966#13 27000966#12 27000966#11 -27000966#10 -27000966#9 1290464046 1290464047#1 1290464043 -27000966#7 38704234#0 38704234#1 38704234#2 38704234#3 38704234#4 38704234#5 38704234#7 235064047#4"/>
    </person>
    <person id="p76" depart="76.00" departPos="random">
        <walk edges="-692770123#0 -178936285#7 -677790077#1 434698489#9 434698489#10 434698489#11 434698489#12 1181247149 1181247150 1228562623#7 1162981413#2 38704236#0 38704236#2 38704236#3 38704236#4 38704236#5 -684300246#2 -684300245#3 -684300245#2"/>
    </person>
    <person id="p77" depart="77.00" departPos="random">
        <walk edges="-235063675 42059097#2 235063692 235064065#3 38704234#7 38704234#5 38704234#4 746915316#4 746915316#3 746915316#2 746915316#1 746915316#0 -747038106 -235063447#1 -235063447#0 235063714#0 38704238#0 -27000966#2 27000966#1 27000966#0"/>
    </person>
    <person id="p78" depart="78.00" departPos="random">
        <walk edges="-692770122#1 27000989#9 -677789596#0 677789596#1 563988072#3 741929958#2"/>
    </person>
    <person id="p79" depart="79.00" departPos="random">
        <walk edges="684294575#2 684294575#1 684294575#0 434698489#10 434698489#9 434698489#8 434698489#7 434698489#6 557409301#0 557409301#2 530283032#3 38704232#12 38704232#11 38704232#10 38704232#9 38704232#8 38704232#7 38704232#6 38704232#5 178936294#2 178936294#1 -235064065#0 -235064065#1 -235063675"/>
    </person>
    <person id="p80" depart="80.00" departPos="random">
        <walk edges="-692823862 -235063832#1 235063832#2 746915316#4 38704234#3 38704234#2 38704234#1 38704234#0 -27000966#7 1290464043 1290464047#1 1290464046 -27000966#9 -27000966#10 27000966#11 27000966#12 -27000966#13 -27000966#15 42343815#0 42343815#1 1228562623#6 1228562623#7 1181247150 1181247149 27000971#0 27000971#1 27000989#3"/>
    </person>
    <person id="p81" depart="81.00" departPos="random">
        <walk edges="-684294575#2 -684294575#1 -684294575#0 434698489#10 434698489#9 434698489#8 434698489#7 434698489#6 557409301#0 557409301#2 178936289#0 178936289#1 178936289#2 178936289#3 178936289#4 -235064085#2"/>
    </person>
    <person id="p82" depart="82.00" departPos="random">
        <walk edges="747038104 1228562624 533894732#6 749330687 533894730#6 533894730#7 533894730#8 178498377#0 178498377#1 235063567#0 235063567#1 235064002#0 235064002#1 235063955#1"/>
    </person>
    <person id="p83" depart="83.00" departPos="random">
        <walk edges="178936294#3 38704232#4 38704232#2 38704232#1 38704232#0 38704234#5 235064111#0 -235064111#1 -235064111#2 -235064111#3 -235064111#6 -235064111#7 533894732#0 533894730#15 533894730#14 533894730#13 533894730#12 533894730#11"/>
    </person>
    <person id="p84" depart="84.00" departPos="random">
        <walk edges="533894732#5 235063714#4 235063714#3 235063714#1 235063714#0 38704238#1 747038105 178936289#12 178936289#11 178936289#10 178936289#9 178936289#8 178936289#7 178936289#6 178936289#5 178936289#4 178936289#3 178936289#2 178936289#1 178936289#0 557409301#2 557409301#0 434698489#4 434698489#3 -557409302#1"/>
    </person>
    <person id="p85" depart="85.00" departPos="random">
        <walk edges="-235063948#1 178937089#2 178937089#1 178498377#3 178498377#2 178498377#1 178498377#0 533894730#8 533894730#7 533894730#6 749330687 533894732#6 1228562624 -27000966#0 27000966#1 -27000966#2 38704238#0 38704238#1 747038105 178936289#12 178936289#11 178936289#10 178936289#9 178936289#8 178936289#7 178936289#6 178936289#5 178936289#4 178936289#3 178936289#2 178936289#1 178936289#0 557409301#2 557409301#0 434698489#4 434698489#3 434698489#2 677789617#0 178936285#1"/>
    </person>
    <person id="p86" depart="86.00" departPos="random">
        <walk edges="178498377#6 178498377#5 178498377#4 178498377#3 178498377#2 178498377#1 178498377#0 533894730#8 533894730#7 533894730#6 749330687 533894732#6 1228562624 -27000966#0 27000966#1 -27000966#2 38704238#0 38704238#1 747038105 178936289#12 178936289#11 178936289#10 178936289#9 178936289#8"/>
    </person>
    <person id="p87" depart="87.00" departPos="random">
        <walk edges="42059095#0 178936294#0 178936294#1 178936294#2 38704232#5 38704232#6 38704232#7 38704232#8 38704232#9 38704232#10 38704232#11 38704232#12 530283032#3 557409301#2 557409301#0 434698489#6 434698489#7 434698489#8 434698489#9 -692770122#0 -692770122#1 27000989#7"/>
    </person>
    <person id="p88" depart="88.00" departPos="random">
        <walk edges="905359326#1 -905359329 727745324#0 727745324#1 747038113 -27000966#13 27000966#12 27000966#11 -27000966#10 -27000966#9 1290464046 1290464047#1 1290464043 -27000966#7 -27000966#5 -27000966#4 -27000966#3 -27000966#2 27000966#1 -27000966#0 1228562624 533894732#6 749330687 533894730#6 533894730#7 533894730#8 533894730#9 533894730#10 533894730#11 -235063948#3"/>
    </person>
    <person id="p89" depart="89.00" departPos="random">
        <walk edges="178261604#0 -178261604#0 -178261604#2 1225873140#1 1225873140#0 533894730#5 749330687 533894732#6 1228562624 -27000966#0 27000966#1 -27000966#2 -27000966#3 -27000966#4 -27000966#5 -27000966#7 1290464043 1290464047#1 1290464046 -27000966#9 -27000966#10 27000966#11 27000966#12 -27000966#13 -27000966#15 42343815#0 42343815#1 1228562623#6 1384805072#0 1181247152"/>
    </person>
    <person id="p90" depart="90.00" departPos="random">
        <walk edges="684294575#4 684294575#5 27000989#6 741929959#0 -741845184#3"/>
    </person>
    <person id="p91" depart="91.00" departPos="random">
        <walk edges="-557409302#1 434698489#3 434698489#4 557409301#0 557409301#2 530283032#3 38704232#12 38704232#11 38704232#10 38704232#9 38704232#8 38704232#7 38704232#6 38704232#5 38704232#4 38704232#2 38704232#1 38704232#0 38704234#5 38704234#7 38704234#8 178936301#0 178936301#2 178936301#3 178936288#2"/>
    </person>
    <person id="p92" depart="92.00" departPos="random">